*Heading
 slope after excavation
** Job name: 3D-field Model name: Model-1
** Generated by: Abaqus/CAE 2020
*Preprint, echo=NO, model=NO, history=NO, contact=NO
**
** PARTS
**
*Part, name=Part-1
*End Part
**  
**
** ASSEMBLY
**
*Assembly, name=Assembly
**  
*Instance, name=Part-1-1, part=Part-1
          0.,           0.,         -15.
*Node
      1,          12.,   11.4641018,          15.
      2,          12.,   10.4219103,          15.
      3,          12.,   9.37971973,          15.
      4,          12.,   8.33752823,          15.
      5,          12.,    7.2953372,          15.
      6,          12.,   6.25314617,          15.
      7,          12.,   5.21095514,          15.
      8,          12.,   4.16876411,          15.
      9,          12.,   3.12657309,          15.
     10,          12.,   2.08438206,          15.
     11,          12.,   1.04219103,          15.
     12,          12.,           0.,          15.
     13,          12.,   11.4641018,          14.
     14,          12.,   10.4219103,          14.
     15,          12.,   9.37971973,          14.
     16,          12.,   8.33752823,          14.
     17,          12.,    7.2953372,          14.
     18,          12.,   6.25314617,          14.
     19,          12.,   5.21095514,          14.
     20,          12.,   4.16876411,          14.
** ... 2476 like lines cut
*Element, type=C3D8
   1,  193,  194,  206,  205,    1,    2,   14,   13
   2,  194,  195,  207,  206,    2,    3,   15,   14
   3,  195,  196,  208,  207,    3,    4,   16,   15
   4,  196,  197,  209,  208,    4,    5,   17,   16
   5,  197,  198,  210,  209,    5,    6,   18,   17
   6,  198,  199,  211,  210,    6,    7,   19,   18
   7,  199,  200,  212,  211,    7,    8,   20,   19
   8,  200,  201,  213,  212,    8,    9,   21,   20
   9,  201,  202,  214,  213,    9,   10,   22,   21
  10,  202,  203,  215,  214,   10,   11,   23,   22
  11,  203,  204,  216,  215,   11,   12,   24,   23
  12,  205,  206,  218,  217,   13,   14,   26,   25
  13,  206,  207,  219,  218,   14,   15,   27,   26
  14,  207,  208,  220,  219,   15,   16,   28,   27
  15,  208,  209,  221,  220,   16,   17,   29,   28
  16,  209,  210,  222,  221,   17,   18,   30,   29
  17,  210,  211,  223,  222,   18,   19,   31,   30
  18,  211,  212,  224,  223,   19,   20,   32,   31
  19,  212,  213,  225,  224,   20,   21,   33,   32
  20,  213,  214,  226,  225,   21,   22,   34,   33
** ... 1960 like lines cut
*Nset, nset=soil, generate
    1,  2496,     1
*Elset, elset=soil, generate
    1,  1980,     1
*Nset, nset=right, generate
   1,  192,    1
*Elset, elset=right, generate
   1,  165,    1
*Nset, nset=bottom
  181,  182,  183,  184,  185,  186,  187,  188,  189,  190,  191,  192,  373,  374,  375,  376
  377,  378,  379,  380,  381,  382,  383,  384,  565,  566,  567,  568,  569,  570,  571,  572
  573,  574,  575,  576,  757,  758,  759,  760,  761,  762,  763,  764,  765,  766,  767,  768
  949,  950,  951,  952,  953,  954,  955,  956,  957,  958,  959,  960, 1141, 1142, 1143, 1144
 1145, 1146, 1147, 1148, 1149, 1150, 1151, 1152, 1333, 1334, 1335, 1336, 1337, 1338, 1339, 1340
 1341, 1342, 1343, 1344, 1525, 1526, 1527, 1528, 1529, 1530, 1531, 1532, 1533, 1534, 1535, 1536
 1717, 1718, 1719, 1720, 1721, 1722, 1723, 1724, 1725, 1726, 1727, 1728, 1909, 1910, 1911, 1912
 1913, 1914, 1915, 1916, 1917, 1918, 1919, 1920, 2101, 2102, 2103, 2104, 2105, 2106, 2107, 2108
 2109, 2110, 2111, 2112, 2293, 2294, 2295, 2296, 2297, 2298, 2299, 2300, 2301, 2302, 2303, 2304
 2485, 2486, 2487, 2488, 2489, 2490, 2491, 2492, 2493, 2494, 2495, 2496
*Elset, elset=bottom
  155,  156,  157,  158,  159,  160,  161,  162,  163,  164,  165,  320,  321,  322,  323,  324
  325,  326,  327,  328,  329,  330,  485,  486,  487,  488,  489,  490,  491,  492,  493,  494
  495,  650,  651,  652,  653,  654,  655,  656,  657,  658,  659,  660,  815,  816,  817,  818
  819,  820,  821,  822,  823,  824,  825,  980,  981,  982,  983,  984,  985,  986,  987,  988
  989,  990, 1145, 1146, 1147, 1148, 1149, 1150, 1151, 1152, 1153, 1154, 1155, 1310, 1311, 1312
 1313, 1314, 1315, 1316, 1317, 1318, 1319, 1320, 1475, 1476, 1477, 1478, 1479, 1480, 1481, 1482
 1483, 1484, 1485, 1640, 1641, 1642, 1643, 1644, 1645, 1646, 1647, 1648, 1649, 1650, 1805, 1806
 1807, 1808, 1809, 1810, 1811, 1812, 1813, 1814, 1815, 1970, 1971, 1972, 1973, 1974, 1975, 1976
 1977, 1978, 1979, 1980
*Nset, nset=top
    1,    2,    3,    4,    5,    6,    7,    8,    9,   10,   11,   12,  193,  194,  195,  196
  197,  198,  199,  200,  201,  202,  203,  204,  385,  386,  387,  388,  389,  390,  391,  392
  393,  394,  395,  396,  577,  578,  579,  580,  581,  582,  583,  584,  585,  586,  587,  588
  769,  770,  771,  772,  773,  774,  775,  776,  777,  778,  779,  780,  961,  962,  963,  964
  965,  966,  967,  968,  969,  970,  971,  972, 1153, 1154, 1155, 1156, 1157, 1158, 1159, 1160
 1161, 1162, 1163, 1164, 1345, 1346, 1347, 1348, 1349, 1350, 1351, 1352, 1353, 1354, 1355, 1356
 1537, 1538, 1539, 1540, 1541, 1542, 1543, 1544, 1545, 1546, 1547, 1548, 1729, 1730, 1731, 1732
 1733, 1734, 1735, 1736, 1737, 1738, 1739, 1740, 1921, 1922, 1923, 1924, 1925, 1926, 1927, 1928
 1929, 1930, 1931, 1932, 2113, 2114, 2115, 2116, 2117, 2118, 2119, 2120, 2121, 2122, 2123, 2124
 2305, 2306, 2307, 2308, 2309, 2310, 2311, 2312, 2313, 2314, 2315, 2316
*Elset, elset=top
    1,    2,    3,    4,    5,    6,    7,    8,    9,   10,   11,  166,  167,  168,  169,  170
  171,  172,  173,  174,  175,  176,  331,  332,  333,  334,  335,  336,  337,  338,  339,  340
  341,  496,  497,  498,  499,  500,  501,  502,  503,  504,  505,  506,  661,  662,  663,  664
  665,  666,  667,  668,  669,  670,  671,  826,  827,  828,  829,  830,  831,  832,  833,  834
  835,  836,  991,  992,  993,  994,  995,  996,  997,  998,  999, 1000, 1001, 1156, 1157, 1158
 1159, 1160, 1161, 1162, 1163, 1164, 1165, 1166, 1321, 1322, 1323, 1324, 1325, 1326, 1327, 1328
 1329, 1330, 1331, 1486, 1487, 1488, 1489, 1490, 1491, 1492, 1493, 1494, 1495, 1496, 1651, 1652
 1653, 1654, 1655, 1656, 1657, 1658, 1659, 1660, 1661, 1816, 1817, 1818, 1819, 1820, 1821, 1822
 1823, 1824, 1825, 1826
*Nset, nset=back, generate
    1,  2485,    12
*Elset, elset=back, generate
    1,  1970,    11
*Nset, nset=front, generate
   12,  2496,    12
*Elset, elset=front, generate
   11,  1980,    11
*Nset, nset=left, generate
 2305,  2496,     1
*Elset, elset=left, generate
 1816,  1980,     1
*Elset, elset=_surf-right_S2, internal, generate
   1,  165,    1
*Surface, type=ELEMENT, name=surf-right
_surf-right_S2, S2
*Elset, elset=_surf-bottom_S5, internal
  155,  156,  157,  158,  159,  160,  161,  162,  163,  164,  165,  320,  321,  322,  323,  324
  325,  326,  327,  328,  329,  330,  485,  486,  487,  488,  489,  490,  491,  492,  493,  494
  495,  650,  651,  652,  653,  654,  655,  656,  657,  658,  659,  660,  815,  816,  817,  818
  819,  820,  821,  822,  823,  824,  825,  980,  981,  982,  983,  984,  985,  986,  987,  988
  989,  990, 1145, 1146, 1147, 1148, 1149, 1150, 1151, 1152, 1153, 1154, 1155, 1310, 1311, 1312
 1313, 1314, 1315, 1316, 1317, 1318, 1319, 1320, 1475, 1476, 1477, 1478, 1479, 1480, 1481, 1482
 1483, 1484, 1485, 1640, 1641, 1642, 1643, 1644, 1645, 1646, 1647, 1648, 1649, 1650, 1805, 1806
 1807, 1808, 1809, 1810, 1811, 1812, 1813, 1814, 1815, 1970, 1971, 1972, 1973, 1974, 1975, 1976
 1977, 1978, 1979, 1980
*Surface, type=ELEMENT, name=surf-bottom
_surf-bottom_S5, S5
*Elset, elset=_surf-top_S3, internal
    1,    2,    3,    4,    5,    6,    7,    8,    9,   10,   11,  166,  167,  168,  169,  170
  171,  172,  173,  174,  175,  176,  331,  332,  333,  334,  335,  336,  337,  338,  339,  340
  341,  496,  497,  498,  499,  500,  501,  502,  503,  504,  505,  506,  661,  662,  663,  664
  665,  666,  667,  668,  669,  670,  671,  826,  827,  828,  829,  830,  831,  832,  833,  834
  835,  836,  991,  992,  993,  994,  995,  996,  997,  998,  999, 1000, 1001, 1156, 1157, 1158
 1159, 1160, 1161, 1162, 1163, 1164, 1165, 1166, 1321, 1322, 1323, 1324, 1325, 1326, 1327, 1328
 1329, 1330, 1331, 1486, 1487, 1488, 1489, 1490, 1491, 1492, 1493, 1494, 1495, 1496, 1651, 1652
 1653, 1654, 1655, 1656, 1657, 1658, 1659, 1660, 1661, 1816, 1817, 1818, 1819, 1820, 1821, 1822
 1823, 1824, 1825, 1826
*Surface, type=ELEMENT, name=surf-top
_surf-top_S3, S3
*Elset, elset=_surf-back_S6, internal, generate
    1,  1970,    11
*Surface, type=ELEMENT, name=surf-back
_surf-back_S6, S6
*Elset, elset=_surf-front_S4, internal, generate
   11,  1980,    11
*Surface, type=ELEMENT, name=surf-front
_surf-front_S4, S4
*Elset, elset=_surf-left_S1, internal, generate
 1816,  1980,     1
*Surface, type=ELEMENT, name=surf-left
_surf-left_S1, S1
** Section: Section-1
*Solid Section, elset=soil, material=wo2-sand
,
*End Instance
**  
*End Assembly
** 
** MATERIALS
** 
*Material, name=wo2-sand
*Density
 1.54303,
*Depvar
    100,
*User Material, constants=31, unsymm
 0.6249,    0.333, 1.07e+07,     0.24,     0.53,     0.84,       1.,     0.12
      2.2,       2.,       5.,   0.0001,      0.5,       6.,       0.,      0.6
 0.558505,     467.,      0.2,     100.,     0.46,       0.,      1.6,   0.0036
    0.016, 0.000105,     0.48,    0.829,     0.44,     3.02,     100.
** 
** BOUNDARY CONDITIONS
** 
** Name: back-U2 Type: Displacement/Rotation
*Boundary
Part-1-1.back, 2, 2
** Name: bottom-U3 Type: Displacement/Rotation
*Boundary
Part-1-1.bottom, 3, 3
** Name: front-U2 Type: Displacement/Rotation
*Boundary
Part-1-1.front, 2, 2
** Name: left-U1 Type: Displacement/Rotation
*Boundary
Part-1-1.left, 1, 1
** Name: right-U1 Type: Displacement/Rotation
*Boundary
Part-1-1.right, 1, 1
** 
** PREDEFINED FIELDS
** 
** Name: Predefined Field-1   Type: Geostatic stress
*Initial Conditions, Type=solution, user
*Initial Conditions, type=STRESS, GEOSTATIC
Part-1-1.soil, 0., 0., -231.454, -15., 0.414984, 0.414984
** ----------------------------------------------------------------
** 
** STEP: Step-1
** 
*Step, name=Step-1, nlgeom=YES
Geostatic equilibrium
*Geostatic
** 
** LOADS
** 
** Name: Load-1   Type: Gravity
*Dload
, GRAV, 10., 0., 0., -1.
** Name: Load-2   Type: Pressure
*Dsload
Part-1-1.surf-top, P, 5.
** 
** OUTPUT REQUESTS
** 
*Restart, write, frequency=0
** 
** FIELD OUTPUT: F-Output-1
** 
*Output, field
*Node Output
UT, 
*Element Output, directions=YES
E, S, SDV
** 
** HISTORY OUTPUT: H-Output-1
** 
*Output, history, variable=PRESELECT
*End Step
** ----------------------------------------------------------------
** 
** STEP: Step-2-pile-1
** 
*Step, name=Step-2-pile-1, nlgeom=YES, inc=1000
Vibration
*Static
0.1, 1050., 0.0105, 1050.
** 
** OUTPUT REQUESTS
** 
*Restart, write, frequency=0
** 
** FIELD OUTPUT: F-Output-1
** 
*Output, field
*Node Output
UT, 
*Element Output, directions=YES
E, S, SDV
** 
** HISTORY OUTPUT: H-Output-1
** 
*Output, history, variable=PRESELECT
*End Step
** ----------------------------------------------------------------
** 
** STEP: Step-3-pile-2
** 
*Step, name=Step-3-pile-2, nlgeom=YES, inc=1000
Vibration
*Static
0.1, 1050., 0.0105, 1050.
** 
** OUTPUT REQUESTS
** 
*Restart, write, frequency=0
** 
** FIELD OUTPUT: F-Output-1
** 
*Output, field
*Node Output
UT, 
*Element Output, directions=YES
E, S, SDV
** 
** HISTORY OUTPUT: H-Output-1
** 
*Output, history, variable=PRESELECT
*End Step
** ----------------------------------------------------------------
** 
** STEP: Step-4-pile-3
** 
*Step, name=Step-4-pile-3, nlgeom=YES, inc=1000
Vibration
*Static
0.1, 1050., 0.0105, 1050.
** 
** OUTPUT REQUESTS
** 
*Restart, write, frequency=0
** 
** FIELD OUTPUT: F-Output-1
** 
*Output, field
*Node Output
UT, 
*Element Output, directions=YES
E, S, SDV
** 
** HISTORY OUTPUT: H-Output-1
** 
*Output, history, variable=PRESELECT
*End Step
